MODEL 1
REMARK VINA RESULT:    -8.013      0.000      0.000
REMARK INTER + INTRA:         -17.425
REMARK INTER:                 -14.338
REMARK INTRA:                  -3.088
REMARK UNBOUND:                -3.088
REMARK SMILES CC(C)c1c(C(=O)Nc2ccccc2)c(-c2ccccc2)c(-c2ccc(F)cc2)n1CC[C@@H](O)C[C@@H](O)CC(=O)O
REMARK SMILES IDX 33 1 32 2 31 3 30 4 4 5 5 6 15 7 22 8 2 9 1 10 3 11 6 12
REMARK SMILES IDX 7 13 8 14 9 16 10 17 14 18 11 19 13 20 12 21 16 22 17 23
REMARK SMILES IDX 21 24 18 25 20 26 19 27 23 28 24 29 29 30 25 31 28 32 26 33
REMARK SMILES IDX 27 34 34 35 35 37 36 38 37 39 38 41 39 42 40 43 41 44
REMARK H PARENT 8 15 34 36 37 40 41 45
REMARK Flexibility Score: inf
ROOT
ATOM      1  C   UNL A   1      18.428  35.920 -11.840  1.00  0.00     0.118 C 
ENDROOT
BRANCH   1   2
ATOM      2  C   UNL A   1      18.371  35.728 -10.306  1.00  0.00     0.053 C 
BRANCH   2   3
ATOM      3  C   UNL A   1      19.382  34.699  -9.735  1.00  0.00     0.125 C 
BRANCH   3   4
ATOM      4  N   UNL A   1      20.163  35.213  -8.582  1.00  0.00    -0.343 N 
ATOM      5  C   UNL A   1      21.060  36.253  -8.589  1.00  0.00     0.034 A 
ATOM      6  C   UNL A   1      21.554  36.455  -7.283  1.00  0.00     0.069 A 
ATOM      7  C   UNL A   1      20.896  35.535  -6.462  1.00  0.00     0.021 A 
ATOM      8  C   UNL A   1      20.094  34.753  -7.296  1.00  0.00     0.057 A 
BRANCH   5   9
ATOM      9  C   UNL A   1      21.483  37.100  -9.803  1.00  0.00     0.031 C 
ATOM     10  C   UNL A   1      20.915  38.526  -9.733  1.00  0.00     0.014 C 
ATOM     11  C   UNL A   1      22.987  37.101 -10.101  1.00  0.00     0.014 C 
ENDBRANCH   5   9
BRANCH   6  12
ATOM     12  C   UNL A   1      22.650  37.393  -6.842  1.00  0.00     0.258 C 
ATOM     13  O   UNL A   1      23.752  36.940  -6.609  1.00  0.00    -0.269 OA
ATOM     14  N   UNL A   1      22.450  38.749  -6.811  1.00  0.00    -0.322 N 
ATOM     15  H   UNL A   1      21.552  39.095  -7.171  1.00  0.00     0.170 HD
BRANCH  14  16
ATOM     16  C   UNL A   1      23.388  39.767  -6.418  1.00  0.00     0.041 A 
ATOM     17  C   UNL A   1      23.743  40.056  -5.076  1.00  0.00     0.026 A 
ATOM     18  C   UNL A   1      23.982  40.539  -7.438  1.00  0.00     0.026 A 
ATOM     19  C   UNL A   1      24.662  41.070  -4.786  1.00  0.00     0.002 A 
ATOM     20  C   UNL A   1      24.900  41.550  -7.138  1.00  0.00     0.002 A 
ATOM     21  C   UNL A   1      25.240  41.814  -5.814  1.00  0.00     0.000 A 
ENDBRANCH  14  16
ENDBRANCH   6  12
BRANCH   7  22
ATOM     22  C   UNL A   1      21.102  35.305  -5.000  1.00  0.00    -0.015 A 
ATOM     23  C   UNL A   1      22.129  34.469  -4.522  1.00  0.00     0.009 A 
ATOM     24  C   UNL A   1      20.278  35.959  -4.064  1.00  0.00     0.009 A 
ATOM     25  C   UNL A   1      22.313  34.281  -3.148  1.00  0.00     0.001 A 
ATOM     26  C   UNL A   1      20.462  35.767  -2.692  1.00  0.00     0.001 A 
ATOM     27  C   UNL A   1      21.478  34.926  -2.234  1.00  0.00     0.000 A 
ENDBRANCH   7  22
BRANCH   8  28
ATOM     28  C   UNL A   1      19.252  33.611  -6.811  1.00  0.00    -0.001 A 
ATOM     29  C   UNL A   1      17.895  33.820  -6.485  1.00  0.00     0.013 A 
ATOM     30  C   UNL A   1      19.784  32.315  -6.653  1.00  0.00     0.013 A 
ATOM     31  C   UNL A   1      17.095  32.767  -6.036  1.00  0.00     0.040 A 
ATOM     32  C   UNL A   1      18.980  31.264  -6.197  1.00  0.00     0.040 A 
ATOM     33  C   UNL A   1      17.637  31.490  -5.892  1.00  0.00     0.123 A 
ATOM     34  F   UNL A   1      16.860  30.469  -5.454  1.00  0.00    -0.207 F 
ENDBRANCH   8  28
ENDBRANCH   3   4
ENDBRANCH   2   3
ENDBRANCH   1   2
BRANCH   1  35
ATOM     35  O   UNL A   1      19.636  35.426 -12.354  1.00  0.00    -0.393 OA
ATOM     36  H   UNL A   1      20.096  34.934 -11.626  1.00  0.00     0.210 HD
ENDBRANCH   1  35
BRANCH   1  37
ATOM     37  C   UNL A   1      17.253  35.235 -12.584  1.00  0.00     0.064 C 
BRANCH  37  38
ATOM     38  C   UNL A   1      17.624  34.657 -13.972  1.00  0.00     0.128 C 
BRANCH  38  39
ATOM     39  O   UNL A   1      16.822  33.541 -14.270  1.00  0.00    -0.392 OA
ATOM     40  H   UNL A   1      16.198  33.806 -14.995  1.00  0.00     0.210 HD
ENDBRANCH  38  39
BRANCH  38  41
ATOM     41  C   UNL A   1      17.506  35.738 -15.067  1.00  0.00     0.154 C 
BRANCH  41  42
ATOM     42  C   UNL A   1      18.848  36.119 -15.644  1.00  0.00     0.305 C 
ATOM     43  O   UNL A   1      19.544  36.935 -15.060  1.00  0.00    -0.252 OA
BRANCH  42  44
ATOM     44  O   UNL A   1      19.290  35.597 -16.809  1.00  0.00    -0.481 OA
ATOM     45  H   UNL A   1      19.044  34.711 -17.105  1.00  0.00     0.296 HD
ENDBRANCH  42  44
ENDBRANCH  41  42
ENDBRANCH  38  41
ENDBRANCH  37  38
ENDBRANCH   1  37
TORSDOF 15
ENDMDL
MODEL 2
REMARK VINA RESULT:    -7.800      1.723      2.467
REMARK INTER + INTRA:         -17.043
REMARK INTER:                 -13.543
REMARK INTRA:                  -3.499
REMARK UNBOUND:                -3.088
REMARK SMILES CC(C)c1c(C(=O)Nc2ccccc2)c(-c2ccccc2)c(-c2ccc(F)cc2)n1CC[C@@H](O)C[C@@H](O)CC(=O)O
REMARK SMILES IDX 33 1 32 2 31 3 30 4 4 5 5 6 15 7 22 8 2 9 1 10 3 11 6 12
REMARK SMILES IDX 7 13 8 14 9 16 10 17 14 18 11 19 13 20 12 21 16 22 17 23
REMARK SMILES IDX 21 24 18 25 20 26 19 27 23 28 24 29 29 30 25 31 28 32 26 33
REMARK SMILES IDX 27 34 34 35 35 37 36 38 37 39 38 41 39 42 40 43 41 44
REMARK H PARENT 8 15 34 36 37 40 41 45
REMARK Flexibility Score: inf
ROOT
ATOM      1  C   UNL A   1      18.121  35.844 -11.510  1.00  0.00     0.118 C 
ENDROOT
BRANCH   1   2
ATOM      2  C   UNL A   1      18.248  35.307 -10.065  1.00  0.00     0.053 C 
BRANCH   2   3
ATOM      3  C   UNL A   1      19.587  34.592  -9.745  1.00  0.00     0.125 C 
BRANCH   3   4
ATOM      4  N   UNL A   1      20.297  35.163  -8.574  1.00  0.00    -0.343 N 
ATOM      5  C   UNL A   1      21.183  36.212  -8.574  1.00  0.00     0.034 A 
ATOM      6  C   UNL A   1      21.602  36.474  -7.253  1.00  0.00     0.069 A 
ATOM      7  C   UNL A   1      20.909  35.580  -6.432  1.00  0.00     0.021 A 
ATOM      8  C   UNL A   1      20.162  34.754  -7.275  1.00  0.00     0.057 A 
BRANCH   5   9
ATOM      9  C   UNL A   1      21.664  37.015  -9.798  1.00  0.00     0.031 C 
ATOM     10  C   UNL A   1      21.147  38.462  -9.773  1.00  0.00     0.014 C 
ATOM     11  C   UNL A   1      23.173  36.954 -10.061  1.00  0.00     0.014 C 
ENDBRANCH   5   9
BRANCH   6  12
ATOM     12  C   UNL A   1      22.662  37.443  -6.792  1.00  0.00     0.258 C 
ATOM     13  O   UNL A   1      23.755  37.014  -6.481  1.00  0.00    -0.269 OA
ATOM     14  N   UNL A   1      22.446  38.796  -6.827  1.00  0.00    -0.322 N 
ATOM     15  H   UNL A   1      21.566  39.117  -7.250  1.00  0.00     0.170 HD
BRANCH  14  16
ATOM     16  C   UNL A   1      23.351  39.842  -6.426  1.00  0.00     0.041 A 
ATOM     17  C   UNL A   1      23.602  40.212  -5.081  1.00  0.00     0.026 A 
ATOM     18  C   UNL A   1      24.021  40.554  -7.443  1.00  0.00     0.026 A 
ATOM     19  C   UNL A   1      24.495  41.248  -4.784  1.00  0.00     0.002 A 
ATOM     20  C   UNL A   1      24.912  41.586  -7.136  1.00  0.00     0.002 A 
ATOM     21  C   UNL A   1      25.150  41.931  -5.807  1.00  0.00     0.000 A 
ENDBRANCH  14  16
ENDBRANCH   6  12
BRANCH   7  22
ATOM     22  C   UNL A   1      21.037  35.413  -4.952  1.00  0.00    -0.015 A 
ATOM     23  C   UNL A   1      21.946  34.497  -4.388  1.00  0.00     0.009 A 
ATOM     24  C   UNL A   1      20.259  36.207  -4.087  1.00  0.00     0.009 A 
ATOM     25  C   UNL A   1      22.058  34.369  -3.001  1.00  0.00     0.001 A 
ATOM     26  C   UNL A   1      20.373  36.074  -2.701  1.00  0.00     0.001 A 
ATOM     27  C   UNL A   1      21.270  35.154  -2.157  1.00  0.00     0.000 A 
ENDBRANCH   7  22
BRANCH   8  28
ATOM     28  C   UNL A   1      19.306  33.623  -6.789  1.00  0.00    -0.001 A 
ATOM     29  C   UNL A   1      19.839  32.320  -6.703  1.00  0.00     0.013 A 
ATOM     30  C   UNL A   1      17.959  33.820  -6.423  1.00  0.00     0.013 A 
ATOM     31  C   UNL A   1      19.056  31.255  -6.249  1.00  0.00     0.040 A 
ATOM     32  C   UNL A   1      17.178  32.749  -5.974  1.00  0.00     0.040 A 
ATOM     33  C   UNL A   1      17.727  31.470  -5.884  1.00  0.00     0.123 A 
ATOM     34  F   UNL A   1      16.969  30.436  -5.445  1.00  0.00    -0.207 F 
ENDBRANCH   8  28
ENDBRANCH   3   4
ENDBRANCH   2   3
ENDBRANCH   1   2
BRANCH   1  35
ATOM     35  O   UNL A   1      19.196  35.403 -12.295  1.00  0.00    -0.393 OA
ATOM     36  H   UNL A   1      19.916  35.103 -11.682  1.00  0.00     0.210 HD
ENDBRANCH   1  35
BRANCH   1  37
ATOM     37  C   UNL A   1      16.797  35.429 -12.201  1.00  0.00     0.064 C 
BRANCH  37  38
ATOM     38  C   UNL A   1      15.668  36.484 -12.110  1.00  0.00     0.128 C 
BRANCH  38  39
ATOM     39  O   UNL A   1      14.564  35.964 -11.413  1.00  0.00    -0.392 OA
ATOM     40  H   UNL A   1      14.420  35.034 -11.730  1.00  0.00     0.210 HD
ENDBRANCH  38  39
BRANCH  38  41
ATOM     41  C   UNL A   1      16.181  37.783 -11.454  1.00  0.00     0.154 C 
BRANCH  41  42
ATOM     42  C   UNL A   1      15.448  38.109 -10.175  1.00  0.00     0.305 C 
ATOM     43  O   UNL A   1      14.486  38.861 -10.208  1.00  0.00    -0.252 OA
BRANCH  42  44
ATOM     44  O   UNL A   1      15.846  37.608  -8.985  1.00  0.00    -0.481 OA
ATOM     45  H   UNL A   1      16.695  37.160  -8.870  1.00  0.00     0.296 HD
ENDBRANCH  42  44
ENDBRANCH  41  42
ENDBRANCH  38  41
ENDBRANCH  37  38
ENDBRANCH   1  37
TORSDOF 15
ENDMDL
MODEL 3
REMARK VINA RESULT:    -7.623      1.806      2.567
REMARK INTER + INTRA:         -16.728
REMARK INTER:                 -13.145
REMARK INTRA:                  -3.583
REMARK UNBOUND:                -3.088
REMARK SMILES CC(C)c1c(C(=O)Nc2ccccc2)c(-c2ccccc2)c(-c2ccc(F)cc2)n1CC[C@@H](O)C[C@@H](O)CC(=O)O
REMARK SMILES IDX 33 1 32 2 31 3 30 4 4 5 5 6 15 7 22 8 2 9 1 10 3 11 6 12
REMARK SMILES IDX 7 13 8 14 9 16 10 17 14 18 11 19 13 20 12 21 16 22 17 23
REMARK SMILES IDX 21 24 18 25 20 26 19 27 23 28 24 29 29 30 25 31 28 32 26 33
REMARK SMILES IDX 27 34 34 35 35 37 36 38 37 39 38 41 39 42 40 43 41 44
REMARK H PARENT 8 15 34 36 37 40 41 45
REMARK Flexibility Score: inf
ROOT
ATOM      1  C   UNL A   1      18.102  36.256 -12.115  1.00  0.00     0.118 C 
ENDROOT
BRANCH   1   2
ATOM      2  C   UNL A   1      18.550  35.613 -10.781  1.00  0.00     0.053 C 
BRANCH   2   3
ATOM      3  C   UNL A   1      17.896  36.217  -9.510  1.00  0.00     0.125 C 
BRANCH   3   4
ATOM      4  N   UNL A   1      18.882  36.660  -8.492  1.00  0.00    -0.343 N 
ATOM      5  C   UNL A   1      19.444  37.907  -8.372  1.00  0.00     0.034 A 
ATOM      6  C   UNL A   1      20.297  37.932  -7.249  1.00  0.00     0.069 A 
ATOM      7  C   UNL A   1      20.207  36.671  -6.653  1.00  0.00     0.021 A 
ATOM      8  C   UNL A   1      19.377  35.898  -7.468  1.00  0.00     0.057 A 
BRANCH   5   9
ATOM      9  C   UNL A   1      19.203  39.121  -9.290  1.00  0.00     0.031 C 
ATOM     10  C   UNL A   1      18.364  40.205  -8.595  1.00  0.00     0.014 C 
ATOM     11  C   UNL A   1      20.463  39.704  -9.938  1.00  0.00     0.014 C 
ENDBRANCH   5   9
BRANCH   6  12
ATOM     12  C   UNL A   1      21.220  39.042  -6.812  1.00  0.00     0.258 C 
ATOM     13  O   UNL A   1      20.824  39.848  -5.993  1.00  0.00    -0.269 OA
ATOM     14  N   UNL A   1      22.523  39.087  -7.236  1.00  0.00    -0.322 N 
ATOM     15  H   UNL A   1      22.857  38.294  -7.799  1.00  0.00     0.170 HD
BRANCH  14  16
ATOM     16  C   UNL A   1      23.520  40.072  -6.911  1.00  0.00     0.041 A 
ATOM     17  C   UNL A   1      23.714  41.283  -7.621  1.00  0.00     0.026 A 
ATOM     18  C   UNL A   1      24.372  39.805  -5.818  1.00  0.00     0.026 A 
ATOM     19  C   UNL A   1      24.715  42.182  -7.237  1.00  0.00     0.002 A 
ATOM     20  C   UNL A   1      25.369  40.709  -5.441  1.00  0.00     0.002 A 
ATOM     21  C   UNL A   1      25.539  41.897  -6.149  1.00  0.00     0.000 A 
ENDBRANCH  14  16
ENDBRANCH   6  12
BRANCH   7  22
ATOM     22  C   UNL A   1      20.957  36.168  -5.463  1.00  0.00    -0.015 A 
ATOM     23  C   UNL A   1      22.251  35.626  -5.581  1.00  0.00     0.009 A 
ATOM     24  C   UNL A   1      20.382  36.262  -4.180  1.00  0.00     0.009 A 
ATOM     25  C   UNL A   1      22.940  35.176  -4.450  1.00  0.00     0.001 A 
ATOM     26  C   UNL A   1      21.073  35.808  -3.053  1.00  0.00     0.001 A 
ATOM     27  C   UNL A   1      22.350  35.263  -3.188  1.00  0.00     0.000 A 
ENDBRANCH   7  22
BRANCH   8  28
ATOM     28  C   UNL A   1      19.055  34.458  -7.204  1.00  0.00    -0.001 A 
ATOM     29  C   UNL A   1      17.910  34.114  -6.456  1.00  0.00     0.013 A 
ATOM     30  C   UNL A   1      19.883  33.418  -7.674  1.00  0.00     0.013 A 
ATOM     31  C   UNL A   1      17.594  32.777  -6.204  1.00  0.00     0.040 A 
ATOM     32  C   UNL A   1      19.564  32.080  -7.415  1.00  0.00     0.040 A 
ATOM     33  C   UNL A   1      18.420  31.761  -6.683  1.00  0.00     0.123 A 
ATOM     34  F   UNL A   1      18.113  30.464  -6.436  1.00  0.00    -0.207 F 
ENDBRANCH   8  28
ENDBRANCH   3   4
ENDBRANCH   2   3
ENDBRANCH   1   2
BRANCH   1  35
ATOM     35  O   UNL A   1      17.853  37.625 -11.943  1.00  0.00    -0.393 OA
ATOM     36  H   UNL A   1      16.873  37.766 -12.012  1.00  0.00     0.210 HD
ENDBRANCH   1  35
BRANCH   1  37
ATOM     37  C   UNL A   1      19.136  36.077 -13.256  1.00  0.00     0.064 C 
BRANCH  37  38
ATOM     38  C   UNL A   1      20.201  34.985 -12.991  1.00  0.00     0.128 C 
BRANCH  38  39
ATOM     39  O   UNL A   1      20.026  33.904 -13.871  1.00  0.00    -0.392 OA
ATOM     40  H   UNL A   1      20.053  34.263 -14.796  1.00  0.00     0.210 HD
ENDBRANCH  38  39
BRANCH  38  41
ATOM     41  C   UNL A   1      21.626  35.569 -13.099  1.00  0.00     0.154 C 
BRANCH  41  42
ATOM     42  C   UNL A   1      22.399  35.439 -11.809  1.00  0.00     0.305 C 
ATOM     43  O   UNL A   1      23.391  36.129 -11.631  1.00  0.00    -0.252 OA
BRANCH  42  44
ATOM     44  O   UNL A   1      22.035  34.557 -10.852  1.00  0.00    -0.481 OA
ATOM     45  H   UNL A   1      21.119  34.276 -10.731  1.00  0.00     0.296 HD
ENDBRANCH  42  44
ENDBRANCH  41  42
ENDBRANCH  38  41
ENDBRANCH  37  38
ENDBRANCH   1  37
TORSDOF 15
ENDMDL
MODEL 4
REMARK VINA RESULT:    -7.146      4.058      9.005
REMARK INTER + INTRA:         -15.874
REMARK INTER:                 -12.891
REMARK INTRA:                  -2.983
REMARK UNBOUND:                -3.088
REMARK SMILES CC(C)c1c(C(=O)Nc2ccccc2)c(-c2ccccc2)c(-c2ccc(F)cc2)n1CC[C@@H](O)C[C@@H](O)CC(=O)O
REMARK SMILES IDX 33 1 32 2 31 3 30 4 4 5 5 6 15 7 22 8 2 9 1 10 3 11 6 12
REMARK SMILES IDX 7 13 8 14 9 16 10 17 14 18 11 19 13 20 12 21 16 22 17 23
REMARK SMILES IDX 21 24 18 25 20 26 19 27 23 28 24 29 29 30 25 31 28 32 26 33
REMARK SMILES IDX 27 34 34 35 35 37 36 38 37 39 38 41 39 42 40 43 41 44
REMARK H PARENT 8 15 34 36 37 40 41 45
REMARK Flexibility Score: inf
ROOT
ATOM      1  C   UNL A   1      23.885  32.646  -4.407  1.00  0.00     0.118 C 
ENDROOT
BRANCH   1   2
ATOM      2  C   UNL A   1      23.394  34.113  -4.423  1.00  0.00     0.053 C 
BRANCH   2   3
ATOM      3  C   UNL A   1      21.873  34.294  -4.666  1.00  0.00     0.125 C 
BRANCH   3   4
ATOM      4  N   UNL A   1      21.558  35.230  -5.773  1.00  0.00    -0.343 N 
ATOM      5  C   UNL A   1      21.163  34.903  -7.047  1.00  0.00     0.034 A 
ATOM      6  C   UNL A   1      20.920  36.082  -7.782  1.00  0.00     0.069 A 
ATOM      7  C   UNL A   1      21.134  37.148  -6.904  1.00  0.00     0.021 A 
ATOM      8  C   UNL A   1      21.578  36.596  -5.700  1.00  0.00     0.057 A 
BRANCH   5   9
ATOM      9  C   UNL A   1      20.987  33.485  -7.624  1.00  0.00     0.031 C 
ATOM     10  C   UNL A   1      19.507  33.086  -7.723  1.00  0.00     0.014 C 
ATOM     11  C   UNL A   1      21.737  33.222  -8.934  1.00  0.00     0.014 C 
ENDBRANCH   5   9
BRANCH   6  12
ATOM     12  C   UNL A   1      20.597  36.209  -9.250  1.00  0.00     0.258 C 
ATOM     13  O   UNL A   1      21.491  36.479 -10.026  1.00  0.00    -0.269 OA
ATOM     14  N   UNL A   1      19.346  35.915  -9.726  1.00  0.00    -0.322 N 
ATOM     15  H   UNL A   1      18.669  35.536  -9.053  1.00  0.00     0.170 HD
BRANCH  14  16
ATOM     16  C   UNL A   1      18.885  35.986 -11.088  1.00  0.00     0.041 A 
ATOM     17  C   UNL A   1      17.787  36.769 -11.523  1.00  0.00     0.026 A 
ATOM     18  C   UNL A   1      19.565  35.211 -12.050  1.00  0.00     0.026 A 
ATOM     19  C   UNL A   1      17.404  36.772 -12.869  1.00  0.00     0.002 A 
ATOM     20  C   UNL A   1      19.176  35.221 -13.393  1.00  0.00     0.002 A 
ATOM     21  C   UNL A   1      18.098  36.002 -13.802  1.00  0.00     0.000 A 
ENDBRANCH  14  16
ENDBRANCH   6  12
BRANCH   7  22
ATOM     22  C   UNL A   1      21.061  38.610  -7.207  1.00  0.00    -0.015 A 
ATOM     23  C   UNL A   1      19.909  39.367  -6.920  1.00  0.00     0.009 A 
ATOM     24  C   UNL A   1      22.175  39.267  -7.764  1.00  0.00     0.009 A 
ATOM     25  C   UNL A   1      19.870  40.736  -7.199  1.00  0.00     0.001 A 
ATOM     26  C   UNL A   1      22.131  40.635  -8.045  1.00  0.00     0.001 A 
ATOM     27  C   UNL A   1      20.978  41.369  -7.765  1.00  0.00     0.000 A 
ENDBRANCH   7  22
BRANCH   8  28
ATOM     28  C   UNL A   1      21.965  37.411  -4.502  1.00  0.00    -0.001 A 
ATOM     29  C   UNL A   1      23.297  37.847  -4.343  1.00  0.00     0.013 A 
ATOM     30  C   UNL A   1      21.027  37.750  -3.505  1.00  0.00     0.013 A 
ATOM     31  C   UNL A   1      23.673  38.610  -3.235  1.00  0.00     0.040 A 
ATOM     32  C   UNL A   1      21.410  38.510  -2.395  1.00  0.00     0.040 A 
ATOM     33  C   UNL A   1      22.731  38.942  -2.262  1.00  0.00     0.123 A 
ATOM     34  F   UNL A   1      23.098  39.681  -1.186  1.00  0.00    -0.207 F 
ENDBRANCH   8  28
ENDBRANCH   3   4
ENDBRANCH   2   3
ENDBRANCH   1   2
BRANCH   1  35
ATOM     35  O   UNL A   1      23.366  31.941  -5.503  1.00  0.00    -0.393 OA
ATOM     36  H   UNL A   1      23.419  30.973  -5.294  1.00  0.00     0.210 HD
ENDBRANCH   1  35
BRANCH   1  37
ATOM     37  C   UNL A   1      25.429  32.518  -4.419  1.00  0.00     0.064 C 
BRANCH  37  38
ATOM     38  C   UNL A   1      25.972  31.226  -3.760  1.00  0.00     0.128 C 
BRANCH  38  39
ATOM     39  O   UNL A   1      24.960  30.591  -3.019  1.00  0.00    -0.392 OA
ATOM     40  H   UNL A   1      24.924  31.026  -2.128  1.00  0.00     0.210 HD
ENDBRANCH  38  39
BRANCH  38  41
ATOM     41  C   UNL A   1      26.568  30.277  -4.821  1.00  0.00     0.154 C 
BRANCH  41  42
ATOM     42  C   UNL A   1      26.878  28.911  -4.260  1.00  0.00     0.305 C 
ATOM     43  O   UNL A   1      27.171  28.798  -3.080  1.00  0.00    -0.252 OA
BRANCH  42  44
ATOM     44  O   UNL A   1      26.863  27.806  -5.038  1.00  0.00    -0.481 OA
ATOM     45  H   UNL A   1      27.503  27.090  -4.931  1.00  0.00     0.296 HD
ENDBRANCH  42  44
ENDBRANCH  41  42
ENDBRANCH  38  41
ENDBRANCH  37  38
ENDBRANCH   1  37
TORSDOF 15
ENDMDL
MODEL 5
REMARK VINA RESULT:    -7.103      2.784      8.714
REMARK INTER + INTRA:         -15.796
REMARK INTER:                 -11.892
REMARK INTRA:                  -3.904
REMARK UNBOUND:                -3.088
REMARK SMILES CC(C)c1c(C(=O)Nc2ccccc2)c(-c2ccccc2)c(-c2ccc(F)cc2)n1CC[C@@H](O)C[C@@H](O)CC(=O)O
REMARK SMILES IDX 33 1 32 2 31 3 30 4 4 5 5 6 15 7 22 8 2 9 1 10 3 11 6 12
REMARK SMILES IDX 7 13 8 14 9 16 10 17 14 18 11 19 13 20 12 21 16 22 17 23
REMARK SMILES IDX 21 24 18 25 20 26 19 27 23 28 24 29 29 30 25 31 28 32 26 33
REMARK SMILES IDX 27 34 34 35 35 37 36 38 37 39 38 41 39 42 40 43 41 44
REMARK H PARENT 8 15 34 36 37 40 41 45
REMARK Flexibility Score: inf
ROOT
ATOM      1  C   UNL A   1      23.781  38.636  -3.921  1.00  0.00     0.118 C 
ENDROOT
BRANCH   1   2
ATOM      2  C   UNL A   1      22.934  38.287  -5.168  1.00  0.00     0.053 C 
BRANCH   2   3
ATOM      3  C   UNL A   1      23.499  37.141  -6.047  1.00  0.00     0.125 C 
BRANCH   3   4
ATOM      4  N   UNL A   1      22.447  36.314  -6.689  1.00  0.00    -0.343 N 
ATOM      5  C   UNL A   1      22.135  36.264  -8.025  1.00  0.00     0.034 A 
ATOM      6  C   UNL A   1      21.106  35.321  -8.233  1.00  0.00     0.069 A 
ATOM      7  C   UNL A   1      20.826  34.758  -6.984  1.00  0.00     0.021 A 
ATOM      8  C   UNL A   1      21.623  35.426  -6.052  1.00  0.00     0.057 A 
BRANCH   5   9
ATOM      9  C   UNL A   1      22.786  37.081  -9.158  1.00  0.00     0.031 C 
ATOM     10  C   UNL A   1      23.203  36.191 -10.339  1.00  0.00     0.014 C 
ATOM     11  C   UNL A   1      21.983  38.302  -9.620  1.00  0.00     0.014 C 
ENDBRANCH   5   9
BRANCH   6  12
ATOM     12  C   UNL A   1      20.359  35.031  -9.511  1.00  0.00     0.258 C 
ATOM     13  O   UNL A   1      20.502  33.949 -10.042  1.00  0.00    -0.269 OA
ATOM     14  N   UNL A   1      19.445  35.922 -10.012  1.00  0.00    -0.322 N 
ATOM     15  H   UNL A   1      19.241  36.751  -9.441  1.00  0.00     0.170 HD
BRANCH  14  16
ATOM     16  C   UNL A   1      18.658  35.792 -11.210  1.00  0.00     0.041 A 
ATOM     17  C   UNL A   1      17.327  35.304 -11.247  1.00  0.00     0.026 A 
ATOM     18  C   UNL A   1      19.259  36.161 -12.432  1.00  0.00     0.026 A 
ATOM     19  C   UNL A   1      16.639  35.206 -12.461  1.00  0.00     0.002 A 
ATOM     20  C   UNL A   1      18.563  36.061 -13.639  1.00  0.00     0.002 A 
ATOM     21  C   UNL A   1      17.253  35.585 -13.654  1.00  0.00     0.000 A 
ENDBRANCH  14  16
ENDBRANCH   6  12
BRANCH   7  22
ATOM     22  C   UNL A   1      19.776  33.747  -6.654  1.00  0.00    -0.015 A 
ATOM     23  C   UNL A   1      18.407  34.077  -6.653  1.00  0.00     0.009 A 
ATOM     24  C   UNL A   1      20.148  32.419  -6.366  1.00  0.00     0.009 A 
ATOM     25  C   UNL A   1      17.443  33.109  -6.356  1.00  0.00     0.001 A 
ATOM     26  C   UNL A   1      19.181  31.456  -6.066  1.00  0.00     0.001 A 
ATOM     27  C   UNL A   1      17.829  31.801  -6.059  1.00  0.00     0.000 A 
ENDBRANCH   7  22
BRANCH   8  28
ATOM     28  C   UNL A   1      21.592  35.151  -4.579  1.00  0.00    -0.001 A 
ATOM     29  C   UNL A   1      20.562  35.690  -3.780  1.00  0.00     0.013 A 
ATOM     30  C   UNL A   1      22.583  34.368  -3.953  1.00  0.00     0.013 A 
ATOM     31  C   UNL A   1      20.516  35.440  -2.406  1.00  0.00     0.040 A 
ATOM     32  C   UNL A   1      22.535  34.125  -2.576  1.00  0.00     0.040 A 
ATOM     33  C   UNL A   1      21.502  34.657  -1.804  1.00  0.00     0.123 A 
ATOM     34  F   UNL A   1      21.456  34.417  -0.471  1.00  0.00    -0.207 F 
ENDBRANCH   8  28
ENDBRANCH   3   4
ENDBRANCH   2   3
ENDBRANCH   1   2
BRANCH   1  35
ATOM     35  O   UNL A   1      23.680  40.003  -3.624  1.00  0.00    -0.393 OA
ATOM     36  H   UNL A   1      23.856  40.509  -4.459  1.00  0.00     0.210 HD
ENDBRANCH   1  35
BRANCH   1  37
ATOM     37  C   UNL A   1      23.382  37.822  -2.665  1.00  0.00     0.064 C 
BRANCH  37  38
ATOM     38  C   UNL A   1      22.607  38.631  -1.596  1.00  0.00     0.128 C 
BRANCH  38  39
ATOM     39  O   UNL A   1      21.349  39.017  -2.088  1.00  0.00    -0.392 OA
ATOM     40  H   UNL A   1      21.478  39.840  -2.628  1.00  0.00     0.210 HD
ENDBRANCH  38  39
BRANCH  38  41
ATOM     41  C   UNL A   1      22.472  37.824  -0.287  1.00  0.00     0.154 C 
BRANCH  41  42
ATOM     42  C   UNL A   1      23.812  37.445   0.295  1.00  0.00     0.305 C 
ATOM     43  O   UNL A   1      24.171  36.278   0.266  1.00  0.00    -0.252 OA
BRANCH  42  44
ATOM     44  O   UNL A   1      24.618  38.363   0.872  1.00  0.00    -0.481 OA
ATOM     45  H   UNL A   1      24.956  39.130   0.390  1.00  0.00     0.296 HD
ENDBRANCH  42  44
ENDBRANCH  41  42
ENDBRANCH  38  41
ENDBRANCH  37  38
ENDBRANCH   1  37
TORSDOF 15
ENDMDL
MODEL 6
REMARK VINA RESULT:    -6.831      3.941      7.433
REMARK INTER + INTRA:         -15.310
REMARK INTER:                 -11.303
REMARK INTRA:                  -4.008
REMARK UNBOUND:                -3.088
REMARK SMILES CC(C)c1c(C(=O)Nc2ccccc2)c(-c2ccccc2)c(-c2ccc(F)cc2)n1CC[C@@H](O)C[C@@H](O)CC(=O)O
REMARK SMILES IDX 33 1 32 2 31 3 30 4 4 5 5 6 15 7 22 8 2 9 1 10 3 11 6 12
REMARK SMILES IDX 7 13 8 14 9 16 10 17 14 18 11 19 13 20 12 21 16 22 17 23
REMARK SMILES IDX 21 24 18 25 20 26 19 27 23 28 24 29 29 30 25 31 28 32 26 33
REMARK SMILES IDX 27 34 34 35 35 37 36 38 37 39 38 41 39 42 40 43 41 44
REMARK H PARENT 8 15 34 36 37 40 41 45
REMARK Flexibility Score: inf
ROOT
ATOM      1  C   UNL A   1      21.457  41.465  -8.807  1.00  0.00     0.118 C 
ENDROOT
BRANCH   1   2
ATOM      2  C   UNL A   1      21.291  39.952  -9.083  1.00  0.00     0.053 C 
BRANCH   2   3
ATOM      3  C   UNL A   1      22.431  39.055  -8.533  1.00  0.00     0.125 C 
BRANCH   3   4
ATOM      4  N   UNL A   1      21.962  38.025  -7.572  1.00  0.00    -0.343 N 
ATOM      5  C   UNL A   1      22.001  38.093  -6.202  1.00  0.00     0.034 A 
ATOM      6  C   UNL A   1      21.417  36.930  -5.657  1.00  0.00     0.069 A 
ATOM      7  C   UNL A   1      20.975  36.163  -6.738  1.00  0.00     0.021 A 
ATOM      8  C   UNL A   1      21.373  36.833  -7.897  1.00  0.00     0.057 A 
BRANCH   5   9
ATOM      9  C   UNL A   1      22.573  39.243  -5.350  1.00  0.00     0.031 C 
ATOM     10  C   UNL A   1      21.463  40.046  -4.654  1.00  0.00     0.014 C 
ATOM     11  C   UNL A   1      23.680  38.835  -4.371  1.00  0.00     0.014 C 
ENDBRANCH   5   9
BRANCH   6  12
ATOM     12  C   UNL A   1      21.362  36.514  -4.208  1.00  0.00     0.258 C 
ATOM     13  O   UNL A   1      20.417  36.866  -3.531  1.00  0.00    -0.269 OA
ATOM     14  N   UNL A   1      22.295  35.658  -3.683  1.00  0.00    -0.322 N 
ATOM     15  H   UNL A   1      22.982  35.260  -4.335  1.00  0.00     0.170 HD
BRANCH  14  16
ATOM     16  C   UNL A   1      22.378  35.171  -2.331  1.00  0.00     0.041 A 
ATOM     17  C   UNL A   1      21.796  33.961  -1.877  1.00  0.00     0.026 A 
ATOM     18  C   UNL A   1      23.075  35.960  -1.392  1.00  0.00     0.026 A 
ATOM     19  C   UNL A   1      21.922  33.568  -0.540  1.00  0.00     0.002 A 
ATOM     20  C   UNL A   1      23.197  35.558  -0.059  1.00  0.00     0.002 A 
ATOM     21  C   UNL A   1      22.622  34.363   0.366  1.00  0.00     0.000 A 
ENDBRANCH  14  16
ENDBRANCH   6  12
BRANCH   7  22
ATOM     22  C   UNL A   1      20.335  34.813  -6.699  1.00  0.00    -0.015 A 
ATOM     23  C   UNL A   1      21.071  33.657  -6.378  1.00  0.00     0.009 A 
ATOM     24  C   UNL A   1      18.956  34.683  -6.954  1.00  0.00     0.009 A 
ATOM     25  C   UNL A   1      20.447  32.406  -6.333  1.00  0.00     0.001 A 
ATOM     26  C   UNL A   1      18.337  33.431  -6.911  1.00  0.00     0.001 A 
ATOM     27  C   UNL A   1      19.083  32.292  -6.603  1.00  0.00     0.000 A 
ENDBRANCH   7  22
BRANCH   8  28
ATOM     28  C   UNL A   1      21.129  36.317  -9.283  1.00  0.00    -0.001 A 
ATOM     29  C   UNL A   1      22.130  35.579  -9.950  1.00  0.00     0.013 A 
ATOM     30  C   UNL A   1      19.917  36.561  -9.960  1.00  0.00     0.013 A 
ATOM     31  C   UNL A   1      21.918  35.088 -11.240  1.00  0.00     0.040 A 
ATOM     32  C   UNL A   1      19.711  36.071 -11.255  1.00  0.00     0.040 A 
ATOM     33  C   UNL A   1      20.710  35.333 -11.892  1.00  0.00     0.123 A 
ATOM     34  F   UNL A   1      20.506  34.856 -13.145  1.00  0.00    -0.207 F 
ENDBRANCH   8  28
ENDBRANCH   3   4
ENDBRANCH   2   3
ENDBRANCH   1   2
BRANCH   1  35
ATOM     35  O   UNL A   1      20.407  41.937  -8.005  1.00  0.00    -0.393 OA
ATOM     36  H   UNL A   1      20.310  41.317  -7.237  1.00  0.00     0.210 HD
ENDBRANCH   1  35
BRANCH   1  37
ATOM     37  C   UNL A   1      22.803  41.816  -8.122  1.00  0.00     0.064 C 
BRANCH  37  38
ATOM     38  C   UNL A   1      23.200  43.310  -8.218  1.00  0.00     0.128 C 
BRANCH  38  39
ATOM     39  O   UNL A   1      22.444  43.957  -9.211  1.00  0.00    -0.392 OA
ATOM     40  H   UNL A   1      22.806  44.876  -9.312  1.00  0.00     0.210 HD
ENDBRANCH  38  39
BRANCH  38  41
ATOM     41  C   UNL A   1      23.043  44.009  -6.851  1.00  0.00     0.154 C 
BRANCH  41  42
ATOM     42  C   UNL A   1      21.883  44.975  -6.830  1.00  0.00     0.305 C 
ATOM     43  O   UNL A   1      22.101  46.176  -6.790  1.00  0.00    -0.252 OA
BRANCH  42  44
ATOM     44  O   UNL A   1      20.603  44.541  -6.828  1.00  0.00    -0.481 OA
ATOM     45  H   UNL A   1      20.334  43.726  -6.385  1.00  0.00     0.296 HD
ENDBRANCH  42  44
ENDBRANCH  41  42
ENDBRANCH  38  41
ENDBRANCH  37  38
ENDBRANCH   1  37
TORSDOF 15
ENDMDL
MODEL 7
REMARK VINA RESULT:    -6.783     29.627     31.688
REMARK INTER + INTRA:         -15.224
REMARK INTER:                 -12.217
REMARK INTRA:                  -3.006
REMARK UNBOUND:                -3.088
REMARK SMILES CC(C)c1c(C(=O)Nc2ccccc2)c(-c2ccccc2)c(-c2ccc(F)cc2)n1CC[C@@H](O)C[C@@H](O)CC(=O)O
REMARK SMILES IDX 33 1 32 2 31 3 30 4 4 5 5 6 15 7 22 8 2 9 1 10 3 11 6 12
REMARK SMILES IDX 7 13 8 14 9 16 10 17 14 18 11 19 13 20 12 21 16 22 17 23
REMARK SMILES IDX 21 24 18 25 20 26 19 27 23 28 24 29 29 30 25 31 28 32 26 33
REMARK SMILES IDX 27 34 34 35 35 37 36 38 37 39 38 41 39 42 40 43 41 44
REMARK H PARENT 8 15 34 36 37 40 41 45
REMARK Flexibility Score: inf
ROOT
ATOM      1  C   UNL A   1      51.411  30.252  -2.575  1.00  0.00     0.118 C 
ENDROOT
BRANCH   1   2
ATOM      2  C   UNL A   1      51.257  31.703  -2.064  1.00  0.00     0.053 C 
BRANCH   2   3
ATOM      3  C   UNL A   1      49.829  32.085  -1.591  1.00  0.00     0.125 C 
BRANCH   3   4
ATOM      4  N   UNL A   1      49.672  32.074  -0.115  1.00  0.00    -0.343 N 
ATOM      5  C   UNL A   1      49.223  31.035   0.662  1.00  0.00     0.034 A 
ATOM      6  C   UNL A   1      49.264  31.411   2.020  1.00  0.00     0.069 A 
ATOM      7  C   UNL A   1      49.797  32.703   2.059  1.00  0.00     0.021 A 
ATOM      8  C   UNL A   1      49.984  33.102   0.733  1.00  0.00     0.057 A 
BRANCH   5   9
ATOM      9  C   UNL A   1      48.749  29.653   0.172  1.00  0.00     0.031 C 
ATOM     10  C   UNL A   1      49.879  28.613   0.213  1.00  0.00     0.014 C 
ATOM     11  C   UNL A   1      47.470  29.133   0.838  1.00  0.00     0.014 C 
ENDBRANCH   5   9
BRANCH   6  12
ATOM     12  C   UNL A   1      48.744  30.644   3.211  1.00  0.00     0.258 C 
ATOM     13  O   UNL A   1      49.432  29.765   3.689  1.00  0.00    -0.269 OA
ATOM     14  N   UNL A   1      47.569  30.998   3.821  1.00  0.00    -0.322 N 
ATOM     15  H   UNL A   1      47.105  31.849   3.480  1.00  0.00     0.170 HD
BRANCH  14  16
ATOM     16  C   UNL A   1      46.945  30.371   4.957  1.00  0.00     0.041 A 
ATOM     17  C   UNL A   1      45.750  29.612   4.897  1.00  0.00     0.026 A 
ATOM     18  C   UNL A   1      47.558  30.538   6.216  1.00  0.00     0.026 A 
ATOM     19  C   UNL A   1      45.210  29.043   6.056  1.00  0.00     0.002 A 
ATOM     20  C   UNL A   1      47.013  29.965   7.368  1.00  0.00     0.002 A 
ATOM     21  C   UNL A   1      45.840  29.217   7.287  1.00  0.00     0.000 A 
ENDBRANCH  14  16
ENDBRANCH   6  12
BRANCH   7  22
ATOM     22  C   UNL A   1      49.997  33.573   3.258  1.00  0.00    -0.015 A 
ATOM     23  C   UNL A   1      51.235  33.636   3.926  1.00  0.00     0.009 A 
ATOM     24  C   UNL A   1      48.941  34.380   3.721  1.00  0.00     0.009 A 
ATOM     25  C   UNL A   1      51.402  34.468   5.036  1.00  0.00     0.001 A 
ATOM     26  C   UNL A   1      49.111  35.209   4.834  1.00  0.00     0.001 A 
ATOM     27  C   UNL A   1      50.341  35.252   5.492  1.00  0.00     0.000 A 
ENDBRANCH   7  22
BRANCH   8  28
ATOM     28  C   UNL A   1      50.501  34.451   0.334  1.00  0.00    -0.001 A 
ATOM     29  C   UNL A   1      49.602  35.470  -0.044  1.00  0.00     0.013 A 
ATOM     30  C   UNL A   1      51.881  34.736   0.310  1.00  0.00     0.013 A 
ATOM     31  C   UNL A   1      50.066  36.734  -0.416  1.00  0.00     0.040 A 
ATOM     32  C   UNL A   1      52.342  36.002  -0.067  1.00  0.00     0.040 A 
ATOM     33  C   UNL A   1      51.435  37.000  -0.427  1.00  0.00     0.123 A 
ATOM     34  F   UNL A   1      51.885  38.227  -0.789  1.00  0.00    -0.207 F 
ENDBRANCH   8  28
ENDBRANCH   3   4
ENDBRANCH   2   3
ENDBRANCH   1   2
BRANCH   1  35
ATOM     35  O   UNL A   1      50.160  29.712  -2.910  1.00  0.00    -0.393 OA
ATOM     36  H   UNL A   1      50.313  28.814  -3.304  1.00  0.00     0.210 HD
ENDBRANCH   1  35
BRANCH   1  37
ATOM     37  C   UNL A   1      52.349  30.134  -3.803  1.00  0.00     0.064 C 
BRANCH  37  38
ATOM     38  C   UNL A   1      52.893  28.707  -4.059  1.00  0.00     0.128 C 
BRANCH  38  39
ATOM     39  O   UNL A   1      52.802  27.929  -2.893  1.00  0.00    -0.392 OA
ATOM     40  H   UNL A   1      52.137  28.362  -2.295  1.00  0.00     0.210 HD
ENDBRANCH  38  39
BRANCH  38  41
ATOM     41  C   UNL A   1      52.151  28.039  -5.236  1.00  0.00     0.154 C 
BRANCH  41  42
ATOM     42  C   UNL A   1      51.427  29.041  -6.102  1.00  0.00     0.305 C 
ATOM     43  O   UNL A   1      52.034  29.618  -6.990  1.00  0.00    -0.252 OA
BRANCH  42  44
ATOM     44  O   UNL A   1      50.123  29.335  -5.902  1.00  0.00    -0.481 OA
ATOM     45  H   UNL A   1      49.832  29.965  -5.229  1.00  0.00     0.296 HD
ENDBRANCH  42  44
ENDBRANCH  41  42
ENDBRANCH  38  41
ENDBRANCH  37  38
ENDBRANCH   1  37
TORSDOF 15
ENDMDL
MODEL 8
REMARK VINA RESULT:    -6.723     25.458     28.467
REMARK INTER + INTRA:         -15.117
REMARK INTER:                 -11.198
REMARK INTRA:                  -3.919
REMARK UNBOUND:                -3.088
REMARK SMILES CC(C)c1c(C(=O)Nc2ccccc2)c(-c2ccccc2)c(-c2ccc(F)cc2)n1CC[C@@H](O)C[C@@H](O)CC(=O)O
REMARK SMILES IDX 33 1 32 2 31 3 30 4 4 5 5 6 15 7 22 8 2 9 1 10 3 11 6 12
REMARK SMILES IDX 7 13 8 14 9 16 10 17 14 18 11 19 13 20 12 21 16 22 17 23
REMARK SMILES IDX 21 24 18 25 20 26 19 27 23 28 24 29 29 30 25 31 28 32 26 33
REMARK SMILES IDX 27 34 34 35 35 37 36 38 37 39 38 41 39 42 40 43 41 44
REMARK H PARENT 8 15 34 36 37 40 41 45
REMARK Flexibility Score: inf
ROOT
ATOM      1  C   UNL A   1      49.018  38.613 -13.572  1.00  0.00     0.118 C 
ENDROOT
BRANCH   1   2
ATOM      2  C   UNL A   1      48.085  39.731 -14.094  1.00  0.00     0.053 C 
BRANCH   2   3
ATOM      3  C   UNL A   1      46.791  39.946 -13.265  1.00  0.00     0.125 C 
BRANCH   3   4
ATOM      4  N   UNL A   1      46.336  41.359 -13.235  1.00  0.00    -0.343 N 
ATOM      5  C   UNL A   1      45.547  41.994 -14.162  1.00  0.00     0.034 A 
ATOM      6  C   UNL A   1      45.306  43.319 -13.745  1.00  0.00     0.069 A 
ATOM      7  C   UNL A   1      45.935  43.466 -12.505  1.00  0.00     0.021 A 
ATOM      8  C   UNL A   1      46.603  42.267 -12.247  1.00  0.00     0.057 A 
BRANCH   5   9
ATOM      9  C   UNL A   1      44.982  41.390 -15.462  1.00  0.00     0.031 C 
ATOM     10  C   UNL A   1      43.454  41.236 -15.405  1.00  0.00     0.014 C 
ATOM     11  C   UNL A   1      45.436  42.087 -16.750  1.00  0.00     0.014 C 
ENDBRANCH   5   9
BRANCH   6  12
ATOM     12  C   UNL A   1      44.606  44.418 -14.506  1.00  0.00     0.258 C 
ATOM     13  O   UNL A   1      43.399  44.516 -14.420  1.00  0.00    -0.269 OA
ATOM     14  N   UNL A   1      45.320  45.363 -15.197  1.00  0.00    -0.322 N 
ATOM     15  H   UNL A   1      46.343  45.331 -15.108  1.00  0.00     0.170 HD
BRANCH  14  16
ATOM     16  C   UNL A   1      44.804  46.464 -15.966  1.00  0.00     0.041 A 
ATOM     17  C   UNL A   1      44.790  46.517 -17.383  1.00  0.00     0.026 A 
ATOM     18  C   UNL A   1      44.291  47.573 -15.260  1.00  0.00     0.026 A 
ATOM     19  C   UNL A   1      44.273  47.634 -18.048  1.00  0.00     0.002 A 
ATOM     20  C   UNL A   1      43.776  48.684 -15.934  1.00  0.00     0.002 A 
ATOM     21  C   UNL A   1      43.766  48.713 -17.327  1.00  0.00     0.000 A 
ENDBRANCH  14  16
ENDBRANCH   6  12
BRANCH   7  22
ATOM     22  C   UNL A   1      46.023  44.700 -11.667  1.00  0.00    -0.015 A 
ATOM     23  C   UNL A   1      45.035  45.019 -10.715  1.00  0.00     0.009 A 
ATOM     24  C   UNL A   1      47.132  45.558 -11.797  1.00  0.00     0.009 A 
ATOM     25  C   UNL A   1      45.147  46.171  -9.932  1.00  0.00     0.001 A 
ATOM     26  C   UNL A   1      47.239  46.711 -11.014  1.00  0.00     0.001 A 
ATOM     27  C   UNL A   1      46.245  47.019 -10.083  1.00  0.00     0.000 A 
ENDBRANCH   7  22
BRANCH   8  28
ATOM     28  C   UNL A   1      47.443  42.027 -11.029  1.00  0.00    -0.001 A 
ATOM     29  C   UNL A   1      48.826  42.302 -11.058  1.00  0.00     0.013 A 
ATOM     30  C   UNL A   1      46.889  41.512  -9.840  1.00  0.00     0.013 A 
ATOM     31  C   UNL A   1      49.623  42.088  -9.931  1.00  0.00     0.040 A 
ATOM     32  C   UNL A   1      47.692  41.294  -8.715  1.00  0.00     0.040 A 
ATOM     33  C   UNL A   1      49.057  41.584  -8.760  1.00  0.00     0.123 A 
ATOM     34  F   UNL A   1      49.831  41.375  -7.667  1.00  0.00    -0.207 F 
ENDBRANCH   8  28
ENDBRANCH   3   4
ENDBRANCH   2   3
ENDBRANCH   1   2
BRANCH   1  35
ATOM     35  O   UNL A   1      50.089  38.414 -14.456  1.00  0.00    -0.393 OA
ATOM     36  H   UNL A   1      50.566  39.279 -14.555  1.00  0.00     0.210 HD
ENDBRANCH   1  35
BRANCH   1  37
ATOM     37  C   UNL A   1      49.586  38.902 -12.159  1.00  0.00     0.064 C 
BRANCH  37  38
ATOM     38  C   UNL A   1      49.706  37.655 -11.249  1.00  0.00     0.128 C 
BRANCH  38  39
ATOM     39  O   UNL A   1      48.663  36.750 -11.515  1.00  0.00    -0.392 OA
ATOM     40  H   UNL A   1      47.830  37.134 -11.135  1.00  0.00     0.210 HD
ENDBRANCH  38  39
BRANCH  38  41
ATOM     41  C   UNL A   1      51.085  36.983 -11.417  1.00  0.00     0.154 C 
BRANCH  41  42
ATOM     42  C   UNL A   1      50.991  35.645 -12.109  1.00  0.00     0.305 C 
ATOM     43  O   UNL A   1      51.019  34.621 -11.444  1.00  0.00    -0.252 OA
BRANCH  42  44
ATOM     44  O   UNL A   1      50.902  35.549 -13.454  1.00  0.00    -0.481 OA
ATOM     45  H   UNL A   1      51.673  35.382 -14.012  1.00  0.00     0.296 HD
ENDBRANCH  42  44
ENDBRANCH  41  42
ENDBRANCH  38  41
ENDBRANCH  37  38
ENDBRANCH   1  37
TORSDOF 15
ENDMDL
MODEL 9
REMARK VINA RESULT:    -6.563     50.874     55.489
REMARK INTER + INTRA:         -14.831
REMARK INTER:                 -10.804
REMARK INTRA:                  -4.027
REMARK UNBOUND:                -3.088
REMARK SMILES CC(C)c1c(C(=O)Nc2ccccc2)c(-c2ccccc2)c(-c2ccc(F)cc2)n1CC[C@@H](O)C[C@@H](O)CC(=O)O
REMARK SMILES IDX 33 1 32 2 31 3 30 4 4 5 5 6 15 7 22 8 2 9 1 10 3 11 6 12
REMARK SMILES IDX 7 13 8 14 9 16 10 17 14 18 11 19 13 20 12 21 16 22 17 23
REMARK SMILES IDX 21 24 18 25 20 26 19 27 23 28 24 29 29 30 25 31 28 32 26 33
REMARK SMILES IDX 27 34 34 35 35 37 36 38 37 39 38 41 39 42 40 43 41 44
REMARK H PARENT 8 15 34 36 37 40 41 45
REMARK Flexibility Score: inf
ROOT
ATOM      1  C   UNL A   1      16.213  -6.753  21.903  1.00  0.00     0.118 C 
ENDROOT
BRANCH   1   2
ATOM      2  C   UNL A   1      17.127  -7.022  20.684  1.00  0.00     0.053 C 
BRANCH   2   3
ATOM      3  C   UNL A   1      17.017  -8.447  20.082  1.00  0.00     0.125 C 
BRANCH   3   4
ATOM      4  N   UNL A   1      17.840  -9.456  20.795  1.00  0.00    -0.343 N 
ATOM      5  C   UNL A   1      17.387 -10.508  21.552  1.00  0.00     0.034 A 
ATOM      6  C   UNL A   1      18.486 -11.257  22.022  1.00  0.00     0.069 A 
ATOM      7  C   UNL A   1      19.632 -10.657  21.491  1.00  0.00     0.021 A 
ATOM      8  C   UNL A   1      19.207  -9.525  20.792  1.00  0.00     0.057 A 
BRANCH   5   9
ATOM      9  C   UNL A   1      15.919 -10.861  21.858  1.00  0.00     0.031 C 
ATOM     10  C   UNL A   1      15.496 -12.178  21.189  1.00  0.00     0.014 C 
ATOM     11  C   UNL A   1      15.541 -10.829  23.343  1.00  0.00     0.014 C 
ENDBRANCH   5   9
BRANCH   6  12
ATOM     12  C   UNL A   1      18.474 -12.412  22.991  1.00  0.00     0.258 C 
ATOM     13  O   UNL A   1      18.568 -12.183  24.180  1.00  0.00    -0.269 OA
ATOM     14  N   UNL A   1      18.245 -13.693  22.560  1.00  0.00    -0.322 N 
ATOM     15  H   UNL A   1      18.011 -13.816  21.567  1.00  0.00     0.170 HD
BRANCH  14  16
ATOM     16  C   UNL A   1      18.202 -14.893  23.354  1.00  0.00     0.041 A 
ATOM     17  C   UNL A   1      19.341 -15.651  23.726  1.00  0.00     0.026 A 
ATOM     18  C   UNL A   1      16.938 -15.353  23.777  1.00  0.00     0.026 A 
ATOM     19  C   UNL A   1      19.204 -16.811  24.496  1.00  0.00     0.002 A 
ATOM     20  C   UNL A   1      16.810 -16.512  24.547  1.00  0.00     0.002 A 
ATOM     21  C   UNL A   1      17.943 -17.240  24.907  1.00  0.00     0.000 A 
ENDBRANCH  14  16
ENDBRANCH   6  12
BRANCH   7  22
ATOM     22  C   UNL A   1      21.057 -11.038  21.732  1.00  0.00    -0.015 A 
ATOM     23  C   UNL A   1      21.752 -10.609  22.878  1.00  0.00     0.009 A 
ATOM     24  C   UNL A   1      21.724 -11.873  20.815  1.00  0.00     0.009 A 
ATOM     25  C   UNL A   1      23.080 -10.990  23.089  1.00  0.00     0.001 A 
ATOM     26  C   UNL A   1      23.052 -12.249  21.028  1.00  0.00     0.001 A 
ATOM     27  C   UNL A   1      23.731 -11.807  22.163  1.00  0.00     0.000 A 
ENDBRANCH   7  22
BRANCH   8  28
ATOM     28  C   UNL A   1      20.138  -8.572  20.105  1.00  0.00    -0.001 A 
ATOM     29  C   UNL A   1      20.421  -8.725  18.731  1.00  0.00     0.013 A 
ATOM     30  C   UNL A   1      20.761  -7.517  20.801  1.00  0.00     0.013 A 
ATOM     31  C   UNL A   1      21.283  -7.843  18.075  1.00  0.00     0.040 A 
ATOM     32  C   UNL A   1      21.627  -6.639  20.140  1.00  0.00     0.040 A 
ATOM     33  C   UNL A   1      21.885  -6.800  18.779  1.00  0.00     0.123 A 
ATOM     34  F   UNL A   1      22.723  -5.946  18.141  1.00  0.00    -0.207 F 
ENDBRANCH   8  28
ENDBRANCH   3   4
ENDBRANCH   2   3
ENDBRANCH   1   2
BRANCH   1  35
ATOM     35  O   UNL A   1      15.057  -7.545  21.835  1.00  0.00    -0.393 OA
ATOM     36  H   UNL A   1      14.730  -7.686  22.761  1.00  0.00     0.210 HD
ENDBRANCH   1  35
BRANCH   1  37
ATOM     37  C   UNL A   1      16.914  -7.012  23.260  1.00  0.00     0.064 C 
BRANCH  37  38
ATOM     38  C   UNL A   1      17.725  -5.810  23.803  1.00  0.00     0.128 C 
BRANCH  38  39
ATOM     39  O   UNL A   1      19.061  -5.884  23.372  1.00  0.00    -0.392 OA
ATOM     40  H   UNL A   1      19.627  -6.032  24.175  1.00  0.00     0.210 HD
ENDBRANCH  38  39
BRANCH  38  41
ATOM     41  C   UNL A   1      17.076  -4.474  23.382  1.00  0.00     0.154 C 
BRANCH  41  42
ATOM     42  C   UNL A   1      18.078  -3.506  22.803  1.00  0.00     0.305 C 
ATOM     43  O   UNL A   1      18.190  -3.410  21.590  1.00  0.00    -0.252 OA
BRANCH  42  44
ATOM     44  O   UNL A   1      18.876  -2.757  23.595  1.00  0.00    -0.481 OA
ATOM     45  H   UNL A   1      19.825  -2.667  23.435  1.00  0.00     0.296 HD
ENDBRANCH  42  44
ENDBRANCH  41  42
ENDBRANCH  38  41
ENDBRANCH  37  38
ENDBRANCH   1  37
TORSDOF 15
ENDMDL
